data_TP-COF
_audit_creation_date              2021-03-03
_audit_creation_method            'Materials Studio'
_symmetry_space_group_name_H-M    'P1'
_symmetry_Int_Tables_number       1
_symmetry_cell_setting            triclinic
loop_
_symmetry_equiv_pos_as_xyz
  x,y,z
_cell_length_a                    37.5412
_cell_length_b                    37.5412
_cell_length_c                    3.3784
_cell_angle_alpha                 90.0000
_cell_angle_beta                  90.0000
_cell_angle_gamma                 120.0000
loop_
_atom_site_label
_atom_site_type_symbol
_atom_site_fract_x
_atom_site_fract_y
_atom_site_fract_z
_atom_site_U_iso_or_equiv
_atom_site_adp_type
_atom_site_occupancy
C1     C     0.29457   0.62814   0.50000   0.00000  Uiso   1.00
C2     C     0.37186   0.66643   0.50000   0.00000  Uiso   1.00
C3     C     0.33357   0.70543   0.50000   0.00000  Uiso   1.00
C4     C     0.70543   0.37186   0.50000   0.00000  Uiso   1.00
C5     C     0.62814   0.33357   0.50000   0.00000  Uiso   1.00
C6     C     0.66643   0.29457   0.50000   0.00000  Uiso   1.00
C7     C     0.62814   0.29457   0.50000   0.00000  Uiso   1.00
C8     C     0.66643   0.37186   0.50000   0.00000  Uiso   1.00
C9     C     0.70543   0.33357   0.50000   0.00000  Uiso   1.00
C10    C     0.37186   0.70543   0.50000   0.00000  Uiso   1.00
C11    C     0.33357   0.62814   0.50000   0.00000  Uiso   1.00
C12    C     0.29457   0.66643   0.50000   0.00000  Uiso   1.00
C13    C     0.33388   0.59167   0.50000   0.00000  Uiso   1.00
C14    C     0.40833   0.74221   0.50000   0.00000  Uiso   1.00
C15    C     0.25779   0.66612   0.50000   0.00000  Uiso   1.00
C16    C     0.66612   0.40833   0.50000   0.00000  Uiso   1.00
C17    C     0.59167   0.25779   0.50000   0.00000  Uiso   1.00
C18    C     0.74221   0.33388   0.50000   0.00000  Uiso   1.00
C19    C     0.59167   0.33388   0.50000   0.00000  Uiso   1.00
C20    C     0.74221   0.40833   0.50000   0.00000  Uiso   1.00
C21    C     0.66612   0.25779   0.50000   0.00000  Uiso   1.00
C22    C     0.40833   0.66612   0.50000   0.00000  Uiso   1.00
C23    C     0.25779   0.59167   0.50000   0.00000  Uiso   1.00
C24    C     0.33388   0.74221   0.50000   0.00000  Uiso   1.00
C25    C     0.37097   0.59167   0.50000   0.00000  Uiso   1.00
C26    C     0.40833   0.77930   0.50000   0.00000  Uiso   1.00
C27    C     0.22070   0.62903   0.50000   0.00000  Uiso   1.00
C28    C     0.62903   0.40833   0.50000   0.00000  Uiso   1.00
C29    C     0.59167   0.22070   0.50000   0.00000  Uiso   1.00
C30    C     0.77930   0.37097   0.50000   0.00000  Uiso   1.00
C31    C     0.59167   0.37097   0.50000   0.00000  Uiso   1.00
C32    C     0.77930   0.40833   0.50000   0.00000  Uiso   1.00
C33    C     0.62903   0.22070   0.50000   0.00000  Uiso   1.00
C34    C     0.40833   0.62903   0.50000   0.00000  Uiso   1.00
C35    C     0.22070   0.59167   0.50000   0.00000  Uiso   1.00
C36    C     0.37097   0.77930   0.50000   0.00000  Uiso   1.00
O37    O     0.37899   0.55964   0.50000   0.00000  Uiso   1.00
O38    O     0.44036   0.81935   0.50000   0.00000  Uiso   1.00
O39    O     0.18065   0.62101   0.50000   0.00000  Uiso   1.00
O40    O     0.62101   0.44036   0.50000   0.00000  Uiso   1.00
O41    O     0.55964   0.18065   0.50000   0.00000  Uiso   1.00
O42    O     0.81935   0.37899   0.50000   0.00000  Uiso   1.00
O43    O     0.55964   0.37899   0.50000   0.00000  Uiso   1.00
O44    O     0.81935   0.44036   0.50000   0.00000  Uiso   1.00
O45    O     0.62101   0.18065   0.50000   0.00000  Uiso   1.00
O46    O     0.44036   0.62101   0.50000   0.00000  Uiso   1.00
O47    O     0.18065   0.55964   0.50000   0.00000  Uiso   1.00
O48    O     0.37899   0.81935   0.50000   0.00000  Uiso   1.00
C49    C     0.42428   0.51126   0.50000   0.00000  Uiso   1.00
C50    C     0.48874   0.91302   0.50000   0.00000  Uiso   1.00
C51    C     0.08698   0.57572   0.50000   0.00000  Uiso   1.00
C52    C     0.57572   0.48874   0.50000   0.00000  Uiso   1.00
C53    C     0.51126   0.08698   0.50000   0.00000  Uiso   1.00
C54    C     0.91302   0.42428   0.50000   0.00000  Uiso   1.00
C55    C     0.51126   0.42428   0.50000   0.00000  Uiso   1.00
C56    C     0.91302   0.48874   0.50000   0.00000  Uiso   1.00
C57    C     0.57572   0.08698   0.50000   0.00000  Uiso   1.00
C58    C     0.48874   0.57572   0.50000   0.00000  Uiso   1.00
C59    C     0.08698   0.51126   0.50000   0.00000  Uiso   1.00
C60    C     0.42428   0.91302   0.50000   0.00000  Uiso   1.00
C61    C     0.44513   0.48902   0.50000   0.00000  Uiso   1.00
C62    C     0.51098   0.95611   0.50000   0.00000  Uiso   1.00
C63    C     0.04389   0.55487   0.50000   0.00000  Uiso   1.00
C64    C     0.55487   0.51098   0.50000   0.00000  Uiso   1.00
C65    C     0.48902   0.04389   0.50000   0.00000  Uiso   1.00
C66    C     0.95611   0.44513   0.50000   0.00000  Uiso   1.00
C67    C     0.48902   0.44513   0.50000   0.00000  Uiso   1.00
C68    C     0.95611   0.51098   0.50000   0.00000  Uiso   1.00
C69    C     0.55487   0.04389   0.50000   0.00000  Uiso   1.00
C70    C     0.51098   0.55487   0.50000   0.00000  Uiso   1.00
C71    C     0.04389   0.48902   0.50000   0.00000  Uiso   1.00
C72    C     0.44513   0.95611   0.50000   0.00000  Uiso   1.00
C73    C     0.42390   0.44477   0.50000   0.00000  Uiso   1.00
C74    C     0.55523   0.97913   0.50000   0.00000  Uiso   1.00
C75    C     0.02087   0.57610   0.50000   0.00000  Uiso   1.00
C76    C     0.57610   0.55523   0.50000   0.00000  Uiso   1.00
C77    C     0.44477   0.02087   0.50000   0.00000  Uiso   1.00
C78    C     0.97913   0.42390   0.50000   0.00000  Uiso   1.00
C79    C     0.44477   0.42390   0.50000   0.00000  Uiso   1.00
C80    C     0.97913   0.55523   0.50000   0.00000  Uiso   1.00
C81    C     0.57610   0.02087   0.50000   0.00000  Uiso   1.00
C82    C     0.55523   0.57610   0.50000   0.00000  Uiso   1.00
C83    C     0.02087   0.44477   0.50000   0.00000  Uiso   1.00
C84    C     0.42390   0.97913   0.50000   0.00000  Uiso   1.00
C85    C     0.44552   0.55448   0.50000   0.00000  Uiso   1.00
C86    C     0.44552   0.89104   0.50000   0.00000  Uiso   1.00
C87    C     0.10896   0.55448   0.50000   0.00000  Uiso   1.00
C88    C     0.55448   0.44552   0.50000   0.00000  Uiso   1.00
C89    C     0.55448   0.10896   0.50000   0.00000  Uiso   1.00
C90    C     0.89104   0.44552   0.50000   0.00000  Uiso   1.00
C91    C     0.48905   0.51095   0.50000   0.00000  Uiso   1.00
C92    C     0.48905   0.97810   0.50000   0.00000  Uiso   1.00
C93    C     0.02190   0.51095   0.50000   0.00000  Uiso   1.00
C94    C     0.51095   0.48905   0.50000   0.00000  Uiso   1.00
C95    C     0.51095   0.02190   0.50000   0.00000  Uiso   1.00
C96    C     0.97810   0.48905   0.50000   0.00000  Uiso   1.00
B97    B     0.42181   0.57819   0.50000   0.00000  Uiso   1.00
B98    B     0.42181   0.84362   0.50000   0.00000  Uiso   1.00
B99    B     0.15638   0.57819   0.50000   0.00000  Uiso   1.00
B100   B     0.57819   0.42181   0.50000   0.00000  Uiso   1.00
B101   B     0.57819   0.15638   0.50000   0.00000  Uiso   1.00
B102   B     0.84362   0.42181   0.50000   0.00000  Uiso   1.00
H103   H     0.30364   0.56118   0.50000   0.00000  Uiso   1.00
H104   H     0.43882   0.74247   0.50000   0.00000  Uiso   1.00
H105   H     0.25753   0.69636   0.50000   0.00000  Uiso   1.00
H106   H     0.69636   0.43882   0.50000   0.00000  Uiso   1.00
H107   H     0.56118   0.25753   0.50000   0.00000  Uiso   1.00
H108   H     0.74247   0.30364   0.50000   0.00000  Uiso   1.00
H109   H     0.56118   0.30364   0.50000   0.00000  Uiso   1.00
H110   H     0.74247   0.43882   0.50000   0.00000  Uiso   1.00
H111   H     0.69636   0.25753   0.50000   0.00000  Uiso   1.00
H112   H     0.43882   0.69636   0.50000   0.00000  Uiso   1.00
H113   H     0.25753   0.56118   0.50000   0.00000  Uiso   1.00
H114   H     0.30364   0.74247   0.50000   0.00000  Uiso   1.00
H115   H     0.38922   0.49430   0.50000   0.00000  Uiso   1.00
H116   H     0.50570   0.89492   0.50000   0.00000  Uiso   1.00
H117   H     0.10508   0.61078   0.50000   0.00000  Uiso   1.00
H118   H     0.61078   0.50570   0.50000   0.00000  Uiso   1.00
H119   H     0.49430   0.10508   0.50000   0.00000  Uiso   1.00
H120   H     0.89492   0.38922   0.50000   0.00000  Uiso   1.00
H121   H     0.49430   0.38922   0.50000   0.00000  Uiso   1.00
H122   H     0.89492   0.50570   0.50000   0.00000  Uiso   1.00
H123   H     0.61078   0.10508   0.50000   0.00000  Uiso   1.00
H124   H     0.50570   0.61078   0.50000   0.00000  Uiso   1.00
H125   H     0.10507   0.49430   0.50000   0.00000  Uiso   1.00
H126   H     0.38922   0.89492   0.50000   0.00000  Uiso   1.00
H127   H     0.38884   0.42653   0.50000   0.00000  Uiso   1.00
H128   H     0.57347   0.96231   0.50000   0.00000  Uiso   1.00
H129   H     0.03769   0.61115   0.50000   0.00000  Uiso   1.00
H130   H     0.61115   0.57347   0.50000   0.00000  Uiso   1.00
H131   H     0.42653   0.03769   0.50000   0.00000  Uiso   1.00
H132   H     0.96231   0.38884   0.50000   0.00000  Uiso   1.00
H133   H     0.42653   0.38884   0.50000   0.00000  Uiso   1.00
H134   H     0.96231   0.57347   0.50000   0.00000  Uiso   1.00
H135   H     0.61115   0.03769   0.50000   0.00000  Uiso   1.00
H136   H     0.57347   0.61115   0.50000   0.00000  Uiso   1.00
H137   H     0.03769   0.42653   0.50000   0.00000  Uiso   1.00
H138   H     0.38884   0.96231   0.50000   0.00000  Uiso   1.00
loop_
_geom_bond_atom_site_label_1
_geom_bond_atom_site_label_2
_geom_bond_distance
_geom_bond_site_symmetry_2
_ccdc_geom_bond_type
C1     C11     1.464   .     S
C1     C12     1.437   .     S
C1     C23     1.375   .     S
C2     C10     1.464   .     S
C2     C22     1.375   .     S
C2     C11     1.437   .     S
C3     C12     1.464   .     S
C3     C10     1.437   .     S
C3     C24     1.375   .     S
C4     C9      1.437   .     S
C4     C8      1.464   .     S
C4     C20     1.375   .     S
C5     C19     1.375   .     S
C5     C8      1.437   .     S
C5     C7      1.464   .     S
C6     C7      1.437   .     S
C6     C9      1.464   .     S
C6     C21     1.375   .     S
C7     C17     1.375   .     S
C8     C16     1.375   .     S
C9     C18     1.375   .     S
C10    C14     1.375   .     S
C11    C13     1.375   .     S
C12    C15     1.375   .     S
C13    H103    1.140   .     S
C13    C25     1.392   .     S
C14    H104    1.140   .     S
C14    C26     1.392   .     S
C15    H105    1.140   .     S
C15    C27     1.392   .     S
C16    C28     1.392   .     S
C16    H106    1.140   .     S
C17    H107    1.140   .     S
C17    C29     1.392   .     S
C18    C30     1.392   .     S
C18    H108    1.140   .     S
C19    C31     1.392   .     S
C19    H109    1.140   .     S
C20    C32     1.392   .     S
C20    H110    1.140   .     S
C21    C33     1.392   .     S
C21    H111    1.140   .     S
C22    H112    1.140   .     S
C22    C34     1.392   .     S
C23    H113    1.140   .     S
C23    C35     1.392   .     S
C24    H114    1.140   .     S
C24    C36     1.392   .     S
C25    O37     1.378   .     S
C25    C34     1.403   .     S
C26    C36     1.403   .     S
C26    O38     1.378   .     S
C27    O39     1.378   .     S
C27    C35     1.403   .     S
C28    O40     1.378   .     S
C28    C31     1.403   .     S
C29    C33     1.403   .     S
C29    O41     1.378   .     S
C30    O42     1.378   .     S
C30    C32     1.403   .     S
C31    O43     1.378   .     S
C32    O44     1.378   .     S
C33    O45     1.378   .     S
C34    O46     1.378   .     S
C35    O47     1.378   .     S
C36    O48     1.378   .     S
O37    B97     1.396   .     S
O38    B98     1.396   .     S
O39    B99     1.396   .     S
O40    B100    1.396   .     S
O41    B101    1.396   .     S
O42    B102    1.396   .     S
O43    B100    1.396   .     S
O44    B102    1.396   .     S
O45    B101    1.396   .     S
O46    B97     1.396   .     S
O47    B99     1.396   .     S
O48    B98     1.396   .     S
C49    H115    1.140   .     S
C49    C85     1.405   .     S
C49    C61     1.401   .     S
C50    C86     1.405   .     S
C50    H116    1.140   .     S
C50    C62     1.401   .     S
C51    C63     1.401   .     S
C51    C87     1.405   .     S
C51    H117    1.140   .     S
C52    C88     1.405   .     S
C52    H118    1.140   .     S
C52    C64     1.401   .     S
C53    H119    1.140   .     S
C53    C89     1.405   .     S
C53    C65     1.401   .     S
C54    H120    1.140   .     S
C54    C90     1.405   .     S
C54    C66     1.401   .     S
C55    H121    1.140   .     S
C55    C67     1.401   .     S
C55    C88     1.405   .     S
C56    C90     1.405   .     S
C56    C68     1.401   .     S
C56    H122    1.140   .     S
C57    H123    1.140   .     S
C57    C89     1.405   .     S
C57    C69     1.401   .     S
C58    C70     1.401   .     S
C58    C85     1.405   .     S
C58    H124    1.140   .     S
C59    H125    1.140   .     S
C59    C87     1.405   .     S
C59    C71     1.401   .     S
C60    C86     1.405   .     S
C60    H126    1.140   .     S
C60    C72     1.401   .     S
C61    C73     1.439   .     S
C61    C91     1.428   .     S
C62    C92     1.428   .     S
C62    C74     1.439   .     S
C63    C75     1.439   .     S
C63    C93     1.428   .     S
C64    C76     1.439   .     S
C64    C94     1.428   .     S
C65    C77     1.439   .     S
C65    C95     1.428   .     S
C66    C96     1.428   .     S
C66    C78     1.439   .     S
C67    C94     1.428   .     S
C67    C79     1.439   .     S
C68    C80     1.439   .     S
C68    C96     1.428   .     S
C69    C81     1.439   .     S
C69    C95     1.428   .     S
C70    C82     1.439   .     S
C70    C91     1.428   .     S
C71    C83     1.439   .     S
C71    C93     1.428   .     S
C72    C92     1.428   .     S
C72    C84     1.439   .     S
C73    C79     1.357   .     S
C73    H127    1.140   .     S
C74    H128    1.140   .     S
C75    H129    1.140   .     S
C76    H130    1.140   .     S
C76    C82     1.357   .     S
C77    H131    1.140   .     S
C78    H132    1.140   .     S
C79    H133    1.140   .     S
C80    H134    1.140   .     S
C81    H135    1.140   .     S
C82    H136    1.140   .     S
C83    H137    1.140   .     S
C84    H138    1.140   .     S
C85    B97     1.542   .     S
C86    B98     1.542   .     S
C87    B99     1.542   .     S
C88    B100    1.542   .     S
C89    B101    1.542   .     S
C90    B102    1.542   .     S
C91    C94     1.424   .     S
